6433427
  -OEChem-07032006313D

 30 31  0     1  0  0  0  0  0999 V2000
    5.9787   -1.0082   -0.0347 S   0  0  0  0  0  0  0  0  0  0  0  0
    3.6473    0.7897    0.9202 O   0  0  0  0  0  0  0  0  0  0  0  0
    2.5323    2.6809    0.2680 O   0  0  0  0  0  0  0  0  0  0  0  0
   -2.8983   -0.5210    0.2725 O   0  0  0  0  0  0  0  0  0  0  0  0
   -6.3585   -0.5656   -0.2309 O   0  5  0  0  0  0  0  0  0  0  0  0
   -5.0322   -1.8973    0.9032 O   0  0  0  0  0  0  0  0  0  0  0  0
    1.5531    0.5635    0.2036 N   0  0  0  0  0  0  0  0  0  0  0  0
    0.3391    0.9217   -0.2342 N   0  0  0  0  0  0  0  0  0  0  0  0
   -5.1982   -0.8799    0.1674 N   0  3  0  0  0  0  0  0  0  0  0  0
    3.3991   -0.6307    0.8167 C   0  0  1  0  0  0  0  0  0  0  0  0
    1.8991   -0.7536    0.6156 C   0  0  0  0  0  0  0  0  0  0  0  0
    4.2035   -1.1803   -0.3526 C   0  0  0  0  0  0  0  0  0  0  0  0
    2.5560    1.4698    0.4344 C   0  0  0  0  0  0  0  0  0  0  0  0
   -0.6092    0.1378    0.1669 C   0  0  0  0  0  0  0  0  0  0  0  0
   -1.9978    0.3581   -0.2021 C   0  0  0  0  0  0  0  0  0  0  0  0
    6.5961   -1.7351   -1.5705 C   0  0  0  0  0  0  0  0  0  0  0  0
   -2.5634    1.3251   -0.9652 C   0  0  0  0  0  0  0  0  0  0  0  0
   -4.0996   -0.1033   -0.2056 C   0  0  0  0  0  0  0  0  0  0  0  0
   -3.9472    1.0284   -0.9726 C   0  0  0  0  0  0  0  0  0  0  0  0
    3.6955   -1.1137    1.7555 H   0  0  0  0  0  0  0  0  0  0  0  0
    1.6138   -1.5119   -0.1196 H   0  0  0  0  0  0  0  0  0  0  0  0
    1.4357   -0.9659    1.5856 H   0  0  0  0  0  0  0  0  0  0  0  0
    3.9707   -0.6315   -1.2715 H   0  0  0  0  0  0  0  0  0  0  0  0
    3.9714   -2.2394   -0.5046 H   0  0  0  0  0  0  0  0  0  0  0  0
   -0.4703   -0.7375    0.8236 H   0  0  0  0  0  0  0  0  0  0  0  0
    7.6892   -1.7199   -1.5621 H   0  0  0  0  0  0  0  0  0  0  0  0
    6.2477   -1.1594   -2.4319 H   0  0  0  0  0  0  0  0  0  0  0  0
    6.2642   -2.7726   -1.6617 H   0  0  0  0  0  0  0  0  0  0  0  0
   -2.0676    2.1466   -1.4622 H   0  0  0  0  0  0  0  0  0  0  0  0
   -4.7311    1.5761   -1.4766 H   0  0  0  0  0  0  0  0  0  0  0  0
  1 12  1  0  0  0  0
  1 16  1  0  0  0  0
  2 10  1  0  0  0  0
  2 13  1  0  0  0  0
  3 13  2  0  0  0  0
  4 15  1  0  0  0  0
  4 18  1  0  0  0  0
  5  9  1  0  0  0  0
  6  9  2  0  0  0  0
  7  8  1  0  0  0  0
  7 11  1  0  0  0  0
  7 13  1  0  0  0  0
  8 14  2  0  0  0  0
  9 18  1  0  0  0  0
 10 11  1  0  0  0  0
 10 12  1  0  0  0  0
 10 20  1  0  0  0  0
 11 21  1  0  0  0  0
 11 22  1  0  0  0  0
 12 23  1  0  0  0  0
 12 24  1  0  0  0  0
 14 15  1  0  0  0  0
 14 25  1  0  0  0  0
 15 17  2  0  0  0  0
 16 26  1  0  0  0  0
 16 27  1  0  0  0  0
 16 28  1  0  0  0  0
 17 19  1  0  0  0  0
 17 29  1  0  0  0  0
 18 19  2  0  0  0  0
 19 30  1  0  0  0  0
M  CHG  2   5  -1   9   1
M  END
> <PUBCHEM_COMPOUND_CID>
6433427

> <PUBCHEM_CONFORMER_RMSD>
0.8

> <PUBCHEM_CONFORMER_DIVERSEORDER>
1
15
5
22
4
2
32
7
30
13
18
29
24
8
26
20
9
33
31
14
23
16
21
19
10
6
12
11
25
27
3
28
17

> <PUBCHEM_MMFF94_PARTIAL_CHARGES>
22
1 -0.46
10 0.28
11 0.3
12 0.23
13 0.78
14 0.47
15 0.05
16 0.23
17 -0.15
18 0.22
19 -0.15
2 -0.43
25 0.06
29 0.15
3 -0.57
30 0.15
4 -0.28
5 -0.52
6 -0.52
7 -0.3
8 -0.51
9 0.96

> <PUBCHEM_EFFECTIVE_ROTOR_COUNT>
5.8

> <PUBCHEM_PHARMACOPHORE_FEATURES>
9
1 16 hydrophobe
1 3 acceptor
1 4 acceptor
1 5 acceptor
1 5 anion
1 6 acceptor
1 8 acceptor
5 2 7 10 11 13 rings
5 4 15 17 18 19 rings

> <PUBCHEM_HEAVY_ATOM_COUNT>
19

> <PUBCHEM_ATOM_DEF_STEREO_COUNT>
0

> <PUBCHEM_ATOM_UDEF_STEREO_COUNT>
1

> <PUBCHEM_BOND_DEF_STEREO_COUNT>
1

> <PUBCHEM_BOND_UDEF_STEREO_COUNT>
0

> <PUBCHEM_ISOTOPIC_ATOM_COUNT>
0

> <PUBCHEM_COMPONENT_COUNT>
1

> <PUBCHEM_CACTVS_TAUTO_COUNT>
1

> <PUBCHEM_CONFORMER_ID>
00622A9300000001

> <PUBCHEM_MMFF94_ENERGY>
42.3665

> <PUBCHEM_FEATURE_SELFOVERLAP>
45.768

> <PUBCHEM_SHAPE_FINGERPRINT>
10366900 7 17603586317870256273
11128504 68 16298392357301109510
11961588 58 16371018438037929602
12633257 1 14117508853020981882
12916754 54 18409730681682953025
13288520 33 18334012783555601247
13533116 47 17489585675954426650
13685833 64 17988645173328320606
13955234 65 17917419974312430784
14123256 34 18272658918039848758
1420 363 18408884035779793410
14251718 22 18040155106708400078
14251732 14 17167870776458007411
14251764 18 14405175179792150702
14251764 30 18340771438635154486
14341114 176 18343020012300321248
14350574 20 18408323280739068690
14455015 7 18202283580754861374
15880784 105 18270121339739695163
17834072 33 17313106353965906358
17844677 252 18412829083785421601
18927931 339 18186521016962336287
193927 3 18131355172489846844
19784866 240 18201445757147089984
20621476 21 18341059565872894502
20645477 70 18411979170028944912
21150785 3 14634875262347926307
21267235 1 18410859853890261619
221357 26 18408038502890582244
2297311 6 18261114050005583253
23559900 14 18114739442817905865
239999 70 18408882954007126178
2838139 119 15285654166373939958
300161 21 8862942771131933617
312423 11 18341060669784867561
4214541 1 18334570223013597889
465052 167 18202286896786216302
5104073 3 18338505374596847593
59755656 215 18260543394902353887
77779 3 18334288786549155177
8863177 126 18336830900013306274
9709674 26 18115587191947009403

> <PUBCHEM_SHAPE_MULTIPOLES>
350.57
15.69
1.84
1.01
0.25
0.62
-0.21
-9.19
-3.16
0.75
0.05
0.72
-0.16
1.97

> <PUBCHEM_SHAPE_SELFOVERLAP>
723.109

> <PUBCHEM_SHAPE_VOLUME>
205.6

> <PUBCHEM_COORDINATE_TYPE>
2
5
10

$$$$
