3009010
  -OEChem-07032006272D

169172  0     1  0  0  0  0  0999 V2000
   24.5167    2.0000    0.0000 O   0  0  0  0  0  0  0  0  0  0  0  0
   24.5167    4.0000    0.0000 O   0  0  0  0  0  0  0  0  0  0  0  0
   27.1147    3.5000    0.0000 O   0  0  0  0  0  0  0  0  0  0  0  0
   24.5167   -1.0000    0.0000 O   0  0  0  0  0  0  0  0  0  0  0  0
   22.7846    2.0000    0.0000 O   0  0  0  0  0  0  0  0  0  0  0  0
   26.2487   -1.0000    0.0000 O   0  0  0  0  0  0  0  0  0  0  0  0
   27.9808    2.0000    0.0000 O   0  0  0  0  0  0  0  0  0  0  0  0
   27.1147    0.5000    0.0000 O   0  0  0  0  0  0  0  0  0  0  0  0
   21.0526    2.0000    0.0000 O   0  0  0  0  0  0  0  0  0  0  0  0
   24.5167   -3.0000    0.0000 O   0  0  0  0  0  0  0  0  0  0  0  0
   27.9808   -3.0000    0.0000 O   0  0  0  0  0  0  0  0  0  0  0  0
   19.3205    2.0000    0.0000 O   0  0  0  0  0  0  0  0  0  0  0  0
   17.5885    2.0000    0.0000 O   0  0  0  0  0  0  0  0  0  0  0  0
   12.3923    2.0000    0.0000 O   0  0  0  0  0  0  0  0  0  0  0  0
   15.8564    2.0000    0.0000 O   0  0  0  0  0  0  0  0  0  0  0  0
   14.1244    2.0000    0.0000 O   0  0  0  0  0  0  0  0  0  0  0  0
    8.0622    0.5000    0.0000 O   0  0  0  0  0  0  0  0  0  0  0  0
   11.5263    3.5000    0.0000 O   0  0  0  0  0  0  0  0  0  0  0  0
    6.3301    0.5000    0.0000 O   0  0  0  0  0  0  0  0  0  0  0  0
   26.2487   -4.0000    0.0000 N   0  0  0  0  0  0  0  0  0  0  0  0
    2.8660    3.5000    0.0000 N   0  0  0  0  0  0  0  0  0  0  0  0
   24.5167    3.0000    0.0000 C   0  0  3  0  0  0  0  0  0  0  0  0
   25.3827    1.5000    0.0000 C   0  0  3  0  0  0  0  0  0  0  0  0
   26.2487    2.0000    0.0000 C   0  0  3  0  0  0  0  0  0  0  0  0
   26.2487    3.0000    0.0000 C   0  0  3  0  0  0  0  0  0  0  0  0
   25.3827    3.5000    0.0000 C   0  0  0  0  0  0  0  0  0  0  0  0
   23.6506    3.5000    0.0000 C   0  0  0  0  0  0  0  0  0  0  0  0
   25.3827    0.5000    0.0000 C   0  0  0  0  0  0  0  0  0  0  0  0
   22.7846    3.0000    0.0000 C   0  0  3  0  0  0  0  0  0  0  0  0
   24.5167   -0.0000    0.0000 C   0  0  3  0  0  0  0  0  0  0  0  0
   27.1147    1.5000    0.0000 C   0  0  0  0  0  0  0  0  0  0  0  0
   21.9186    3.5000    0.0000 C   0  0  0  0  0  0  0  0  0  0  0  0
   25.3827   -1.5000    0.0000 C   0  0  2  0  0  0  0  0  0  0  0  0
   21.0526    3.0000    0.0000 C   0  0  3  0  0  0  0  0  0  0  0  0
   25.3827   -2.5000    0.0000 C   0  0  2  0  0  0  0  0  0  0  0  0
   26.2487   -3.0000    0.0000 C   0  0  2  0  0  0  0  0  0  0  0  0
   27.1147   -2.5000    0.0000 C   0  0  1  0  0  0  0  0  0  0  0  0
   27.1147   -1.5000    0.0000 C   0  0  1  0  0  0  0  0  0  0  0  0
   23.6506    0.5000    0.0000 C   0  0  0  0  0  0  0  0  0  0  0  0
   20.1865    3.5000    0.0000 C   0  0  0  0  0  0  0  0  0  0  0  0
   19.3205    3.0000    0.0000 C   0  0  3  0  0  0  0  0  0  0  0  0
   27.9808   -1.0000    0.0000 C   0  0  0  0  0  0  0  0  0  0  0  0
   18.4545    3.5000    0.0000 C   0  0  0  0  0  0  0  0  0  0  0  0
   22.7846   -0.0000    0.0000 C   0  0  0  0  0  0  0  0  0  0  0  0
   28.8468    1.5000    0.0000 C   0  0  0  0  0  0  0  0  0  0  0  0
   17.5885    3.0000    0.0000 C   0  0  3  0  0  0  0  0  0  0  0  0
   21.9186    0.5000    0.0000 C   0  0  0  0  0  0  0  0  0  0  0  0
   16.7224    3.5000    0.0000 C   0  0  0  0  0  0  0  0  0  0  0  0
   10.6603    2.0000    0.0000 C   0  0  3  0  0  0  0  0  0  0  0  0
   11.5263    1.5000    0.0000 C   0  0  3  0  0  0  0  0  0  0  0  0
    9.7942    1.5000    0.0000 C   0  0  0  0  0  0  0  0  0  0  0  0
   15.8564    3.0000    0.0000 C   0  0  0  0  0  0  0  0  0  0  0  0
   11.5263    0.5000    0.0000 C   0  0  3  0  0  0  0  0  0  0  0  0
   21.0526   -0.0000    0.0000 C   0  0  0  0  0  0  0  0  0  0  0  0
    8.9282    2.0000    0.0000 C   0  0  0  0  0  0  0  0  0  0  0  0
   14.9904    3.5000    0.0000 C   0  0  0  0  0  0  0  0  0  0  0  0
   10.6603    3.0000    0.0000 C   0  0  0  0  0  0  0  0  0  0  0  0
   14.1244    3.0000    0.0000 C   0  0  3  0  0  0  0  0  0  0  0  0
    8.0622    1.5000    0.0000 C   0  0  3  0  0  0  0  0  0  0  0  0
   13.2583    3.5000    0.0000 C   0  0  0  0  0  0  0  0  0  0  0  0
   10.6603   -0.0000    0.0000 C   0  0  0  0  0  0  0  0  0  0  0  0
   12.3923   -0.0000    0.0000 C   0  0  0  0  0  0  0  0  0  0  0  0
   12.3923    3.0000    0.0000 C   0  0  0  0  0  0  0  0  0  0  0  0
    7.1962    2.0000    0.0000 C   0  0  0  0  0  0  0  0  0  0  0  0
   20.1865    0.5000    0.0000 C   0  0  0  0  0  0  0  0  0  0  0  0
   13.2583    0.5000    0.0000 C   0  0  0  0  0  0  0  0  0  0  0  0
    6.3301    1.5000    0.0000 C   0  0  0  0  0  0  0  0  0  0  0  0
   19.3205   -0.0000    0.0000 C   0  0  0  0  0  0  0  0  0  0  0  0
    5.4641    2.0000    0.0000 C   0  0  0  0  0  0  0  0  0  0  0  0
   14.1244   -0.0000    0.0000 C   0  0  0  0  0  0  0  0  0  0  0  0
   18.4545    0.5000    0.0000 C   0  0  0  0  0  0  0  0  0  0  0  0
    4.5981    1.5000    0.0000 C   0  0  0  0  0  0  0  0  0  0  0  0
    5.4641    3.0000    0.0000 C   0  0  0  0  0  0  0  0  0  0  0  0
   14.9904    0.5000    0.0000 C   0  0  0  0  0  0  0  0  0  0  0  0
   17.5885   -0.0000    0.0000 C   0  0  0  0  0  0  0  0  0  0  0  0
    3.7320    2.0000    0.0000 C   0  0  0  0  0  0  0  0  0  0  0  0
    4.5981    3.5000    0.0000 C   0  0  0  0  0  0  0  0  0  0  0  0
    3.7320    3.0000    0.0000 C   0  0  0  0  0  0  0  0  0  0  0  0
   15.8564   -0.0000    0.0000 C   0  0  0  0  0  0  0  0  0  0  0  0
   16.7224    0.5000    0.0000 C   0  0  0  0  0  0  0  0  0  0  0  0
    2.0000    3.0000    0.0000 C   0  0  0  0  0  0  0  0  0  0  0  0
   24.8458    1.1900    0.0000 H   0  0  0  0  0  0  0  0  0  0  0  0
   26.2487    1.3800    0.0000 H   0  0  0  0  0  0  0  0  0  0  0  0
   26.2487    3.6200    0.0000 H   0  0  0  0  0  0  0  0  0  0  0  0
   25.7812    3.9750    0.0000 H   0  0  0  0  0  0  0  0  0  0  0  0
   24.9842    3.9750    0.0000 H   0  0  0  0  0  0  0  0  0  0  0  0
   24.0492    3.9750    0.0000 H   0  0  0  0  0  0  0  0  0  0  0  0
   23.2521    3.9750    0.0000 H   0  0  0  0  0  0  0  0  0  0  0  0
   25.5947   -0.0826    0.0000 H   0  0  0  0  0  0  0  0  0  0  0  0
   25.9933    0.6077    0.0000 H   0  0  0  0  0  0  0  0  0  0  0  0
   23.3215    2.6900    0.0000 H   0  0  0  0  0  0  0  0  0  0  0  0
   25.0536   -0.3100    0.0000 H   0  0  0  0  0  0  0  0  0  0  0  0
   22.3171    3.9750    0.0000 H   0  0  0  0  0  0  0  0  0  0  0  0
   21.5201    3.9750    0.0000 H   0  0  0  0  0  0  0  0  0  0  0  0
   25.0536    4.3100    0.0000 H   0  0  0  0  0  0  0  0  0  0  0  0
   27.1147    4.1200    0.0000 H   0  0  0  0  0  0  0  0  0  0  0  0
   24.8458   -1.8100    0.0000 H   0  0  0  0  0  0  0  0  0  0  0  0
   20.5156    2.6900    0.0000 H   0  0  0  0  0  0  0  0  0  0  0  0
   25.9196   -2.8100    0.0000 H   0  0  0  0  0  0  0  0  0  0  0  0
   25.7118   -3.3100    0.0000 H   0  0  0  0  0  0  0  0  0  0  0  0
   27.1147   -3.1200    0.0000 H   0  0  0  0  0  0  0  0  0  0  0  0
   27.1147   -0.8800    0.0000 H   0  0  0  0  0  0  0  0  0  0  0  0
   23.6506    1.1200    0.0000 H   0  0  0  0  0  0  0  0  0  0  0  0
   20.5851    3.9750    0.0000 H   0  0  0  0  0  0  0  0  0  0  0  0
   19.7880    3.9750    0.0000 H   0  0  0  0  0  0  0  0  0  0  0  0
   22.2477    1.6900    0.0000 H   0  0  0  0  0  0  0  0  0  0  0  0
   18.7836    2.6900    0.0000 H   0  0  0  0  0  0  0  0  0  0  0  0
   28.2908   -1.5369    0.0000 H   0  0  0  0  0  0  0  0  0  0  0  0
   28.5177   -0.6900    0.0000 H   0  0  0  0  0  0  0  0  0  0  0  0
   27.6708   -0.4631    0.0000 H   0  0  0  0  0  0  0  0  0  0  0  0
   26.7856   -4.3100    0.0000 H   0  0  0  0  0  0  0  0  0  0  0  0
   25.7118   -4.3100    0.0000 H   0  0  0  0  0  0  0  0  0  0  0  0
   18.8530    3.9750    0.0000 H   0  0  0  0  0  0  0  0  0  0  0  0
   18.0560    3.9750    0.0000 H   0  0  0  0  0  0  0  0  0  0  0  0
   22.7846   -0.6200    0.0000 H   0  0  0  0  0  0  0  0  0  0  0  0
   20.5156    1.6900    0.0000 H   0  0  0  0  0  0  0  0  0  0  0  0
   24.5167   -3.6200    0.0000 H   0  0  0  0  0  0  0  0  0  0  0  0
   28.5368    0.9631    0.0000 H   0  0  0  0  0  0  0  0  0  0  0  0
   29.3837    1.1900    0.0000 H   0  0  0  0  0  0  0  0  0  0  0  0
   29.1568    2.0369    0.0000 H   0  0  0  0  0  0  0  0  0  0  0  0
   28.5177   -2.6900    0.0000 H   0  0  0  0  0  0  0  0  0  0  0  0
   17.0515    2.6900    0.0000 H   0  0  0  0  0  0  0  0  0  0  0  0
   18.7836    1.6900    0.0000 H   0  0  0  0  0  0  0  0  0  0  0  0
   21.9186    1.1200    0.0000 H   0  0  0  0  0  0  0  0  0  0  0  0
   17.1210    3.9750    0.0000 H   0  0  0  0  0  0  0  0  0  0  0  0
   16.3239    3.9750    0.0000 H   0  0  0  0  0  0  0  0  0  0  0  0
   10.1233    2.3100    0.0000 H   0  0  0  0  0  0  0  0  0  0  0  0
   11.5263    2.1200    0.0000 H   0  0  0  0  0  0  0  0  0  0  0  0
    9.3957    1.0250    0.0000 H   0  0  0  0  0  0  0  0  0  0  0  0
   10.1928    1.0250    0.0000 H   0  0  0  0  0  0  0  0  0  0  0  0
   17.0515    1.6900    0.0000 H   0  0  0  0  0  0  0  0  0  0  0  0
   11.5263   -0.1200    0.0000 H   0  0  0  0  0  0  0  0  0  0  0  0
   21.0526   -0.6200    0.0000 H   0  0  0  0  0  0  0  0  0  0  0  0
    9.3267    2.4750    0.0000 H   0  0  0  0  0  0  0  0  0  0  0  0
    8.5297    2.4750    0.0000 H   0  0  0  0  0  0  0  0  0  0  0  0
   15.3889    3.9750    0.0000 H   0  0  0  0  0  0  0  0  0  0  0  0
   14.5919    3.9750    0.0000 H   0  0  0  0  0  0  0  0  0  0  0  0
   11.2803    3.0000    0.0000 H   0  0  0  0  0  0  0  0  0  0  0  0
   10.6603    3.6200    0.0000 H   0  0  0  0  0  0  0  0  0  0  0  0
   10.0403    3.0000    0.0000 H   0  0  0  0  0  0  0  0  0  0  0  0
   14.6613    2.6900    0.0000 H   0  0  0  0  0  0  0  0  0  0  0  0
    7.5252    1.1900    0.0000 H   0  0  0  0  0  0  0  0  0  0  0  0
   13.6569    3.9750    0.0000 H   0  0  0  0  0  0  0  0  0  0  0  0
   12.8598    3.9750    0.0000 H   0  0  0  0  0  0  0  0  0  0  0  0
   10.3503    0.5369    0.0000 H   0  0  0  0  0  0  0  0  0  0  0  0
   10.1233   -0.3100    0.0000 H   0  0  0  0  0  0  0  0  0  0  0  0
   10.9703   -0.5369    0.0000 H   0  0  0  0  0  0  0  0  0  0  0  0
   12.3923   -0.6200    0.0000 H   0  0  0  0  0  0  0  0  0  0  0  0
    7.5947    2.4749    0.0000 H   0  0  0  0  0  0  0  0  0  0  0  0
    6.7976    2.4749    0.0000 H   0  0  0  0  0  0  0  0  0  0  0  0
   20.1865    1.1200    0.0000 H   0  0  0  0  0  0  0  0  0  0  0  0
   13.5874    1.6900    0.0000 H   0  0  0  0  0  0  0  0  0  0  0  0
   13.2583    1.1200    0.0000 H   0  0  0  0  0  0  0  0  0  0  0  0
    7.5252    0.1900    0.0000 H   0  0  0  0  0  0  0  0  0  0  0  0
   19.3205   -0.6200    0.0000 H   0  0  0  0  0  0  0  0  0  0  0  0
   14.1244   -0.6200    0.0000 H   0  0  0  0  0  0  0  0  0  0  0  0
   18.4545    1.1200    0.0000 H   0  0  0  0  0  0  0  0  0  0  0  0
    4.5981    0.8800    0.0000 H   0  0  0  0  0  0  0  0  0  0  0  0
    6.0010    3.3100    0.0000 H   0  0  0  0  0  0  0  0  0  0  0  0
   14.9904    1.1200    0.0000 H   0  0  0  0  0  0  0  0  0  0  0  0
   17.5885   -0.6200    0.0000 H   0  0  0  0  0  0  0  0  0  0  0  0
    3.1951    1.6900    0.0000 H   0  0  0  0  0  0  0  0  0  0  0  0
    4.5981    4.1200    0.0000 H   0  0  0  0  0  0  0  0  0  0  0  0
   15.8564   -0.6200    0.0000 H   0  0  0  0  0  0  0  0  0  0  0  0
   16.7224    1.1200    0.0000 H   0  0  0  0  0  0  0  0  0  0  0  0
    2.8660    4.1200    0.0000 H   0  0  0  0  0  0  0  0  0  0  0  0
    1.6900    3.5369    0.0000 H   0  0  0  0  0  0  0  0  0  0  0  0
    1.4631    2.6900    0.0000 H   0  0  0  0  0  0  0  0  0  0  0  0
    2.3100    2.4631    0.0000 H   0  0  0  0  0  0  0  0  0  0  0  0
  1 22  1  0  0  0  0
  1 23  1  0  0  0  0
  2 22  1  0  0  0  0
  2 95  1  0  0  0  0
  3 25  1  0  0  0  0
  3 96  1  0  0  0  0
  4 30  1  0  0  0  0
 33  4  1  6  0  0  0
  5 29  1  0  0  0  0
  5106  1  0  0  0  0
  6 33  1  0  0  0  0
  6 38  1  0  0  0  0
  7 31  1  0  0  0  0
  7 45  1  0  0  0  0
  8 31  2  0  0  0  0
  9 34  1  0  0  0  0
  9116  1  0  0  0  0
 35 10  1  6  0  0  0
 10117  1  0  0  0  0
 37 11  1  1  0  0  0
 11121  1  0  0  0  0
 12 41  1  0  0  0  0
 12123  1  0  0  0  0
 13 46  1  0  0  0  0
 13131  1  0  0  0  0
 14 50  1  0  0  0  0
 14 63  1  0  0  0  0
 15 52  2  0  0  0  0
 16 58  1  0  0  0  0
 16152  1  0  0  0  0
 17 59  1  0  0  0  0
 17154  1  0  0  0  0
 18 63  2  0  0  0  0
 19 67  2  0  0  0  0
 36 20  1  6  0  0  0
 20111  1  0  0  0  0
 20112  1  0  0  0  0
 21 78  1  0  0  0  0
 21 81  1  0  0  0  0
 21166  1  0  0  0  0
 22 26  1  0  0  0  0
 22 27  1  0  0  0  0
 23 24  1  0  0  0  0
 23 28  1  0  0  0  0
 23 82  1  0  0  0  0
 24 25  1  0  0  0  0
 24 31  1  0  0  0  0
 24 83  1  0  0  0  0
 25 26  1  0  0  0  0
 25 84  1  0  0  0  0
 26 85  1  0  0  0  0
 26 86  1  0  0  0  0
 27 29  1  0  0  0  0
 27 87  1  0  0  0  0
 27 88  1  0  0  0  0
 28 30  1  0  0  0  0
 28 89  1  0  0  0  0
 28 90  1  0  0  0  0
 29 32  1  0  0  0  0
 29 91  1  0  0  0  0
 30 39  1  0  0  0  0
 30 92  1  0  0  0  0
 32 34  1  0  0  0  0
 32 93  1  0  0  0  0
 32 94  1  0  0  0  0
 33 35  1  0  0  0  0
 33 97  1  0  0  0  0
 34 40  1  0  0  0  0
 34 98  1  0  0  0  0
 35 36  1  0  0  0  0
 35 99  1  0  0  0  0
 36 37  1  0  0  0  0
 36100  1  0  0  0  0
 37 38  1  0  0  0  0
 37101  1  0  0  0  0
 38 42  1  6  0  0  0
 38102  1  0  0  0  0
 39 44  2  3  0  0  0
 39103  1  0  0  0  0
 40 41  1  0  0  0  0
 40104  1  0  0  0  0
 40105  1  0  0  0  0
 41 43  1  0  0  0  0
 41107  1  0  0  0  0
 42108  1  0  0  0  0
 42109  1  0  0  0  0
 42110  1  0  0  0  0
 43 46  1  0  0  0  0
 43113  1  0  0  0  0
 43114  1  0  0  0  0
 44 47  1  0  0  0  0
 44115  1  0  0  0  0
 45118  1  0  0  0  0
 45119  1  0  0  0  0
 45120  1  0  0  0  0
 46 48  1  0  0  0  0
 46122  1  0  0  0  0
 47 54  2  3  0  0  0
 47124  1  0  0  0  0
 48 52  1  0  0  0  0
 48125  1  0  0  0  0
 48126  1  0  0  0  0
 49 50  1  0  0  0  0
 49 51  1  0  0  0  0
 49 57  1  0  0  0  0
 49127  1  0  0  0  0
 50 53  1  0  0  0  0
 50128  1  0  0  0  0
 51 55  1  0  0  0  0
 51129  1  0  0  0  0
 51130  1  0  0  0  0
 52 56  1  0  0  0  0
 53 61  1  0  0  0  0
 53 62  1  0  0  0  0
 53132  1  0  0  0  0
 54 65  1  0  0  0  0
 54133  1  0  0  0  0
 55 59  1  0  0  0  0
 55134  1  0  0  0  0
 55135  1  0  0  0  0
 56 58  1  0  0  0  0
 56136  1  0  0  0  0
 56137  1  0  0  0  0
 57138  1  0  0  0  0
 57139  1  0  0  0  0
 57140  1  0  0  0  0
 58 60  1  0  0  0  0
 58141  1  0  0  0  0
 59 64  1  0  0  0  0
 59142  1  0  0  0  0
 60 63  1  0  0  0  0
 60143  1  0  0  0  0
 60144  1  0  0  0  0
 61145  1  0  0  0  0
 61146  1  0  0  0  0
 61147  1  0  0  0  0
 62 66  2  3  0  0  0
 62148  1  0  0  0  0
 64 67  1  0  0  0  0
 64149  1  0  0  0  0
 64150  1  0  0  0  0
 65 68  2  3  0  0  0
 65151  1  0  0  0  0
 66 70  1  0  0  0  0
 66153  1  0  0  0  0
 67 69  1  0  0  0  0
 68 71  1  0  0  0  0
 68155  1  0  0  0  0
 69 72  2  0  0  0  0
 69 73  1  0  0  0  0
 70 74  2  3  0  0  0
 70156  1  0  0  0  0
 71 75  2  3  0  0  0
 71157  1  0  0  0  0
 72 76  1  0  0  0  0
 72158  1  0  0  0  0
 73 77  2  0  0  0  0
 73159  1  0  0  0  0
 74 79  1  0  0  0  0
 74160  1  0  0  0  0
 75 80  1  0  0  0  0
 75161  1  0  0  0  0
 76 78  2  0  0  0  0
 76162  1  0  0  0  0
 77 78  1  0  0  0  0
 77163  1  0  0  0  0
 79 80  2  3  0  0  0
 79164  1  0  0  0  0
 80165  1  0  0  0  0
 81167  1  0  0  0  0
 81168  1  0  0  0  0
 81169  1  0  0  0  0
M  END
> <PUBCHEM_COMPOUND_CID>
3009010

> <PUBCHEM_COMPOUND_CANONICALIZED>
1

> <PUBCHEM_CACTVS_COMPLEXITY>
2140

> <PUBCHEM_CACTVS_HBOND_ACCEPTOR>
21

> <PUBCHEM_CACTVS_HBOND_DONOR>
12

> <PUBCHEM_CACTVS_ROTATABLE_BOND>
12

> <PUBCHEM_CACTVS_SUBSKEYS>
AAADcfB/PgAAAAAAAAAAAAAAAAAAAAAAAAA0SIAAAAAAAAABAAAAHgAQCAAADTzxmAcyyILABgCIAqTSSACCAAAlAgAIiIEIZMgbNDbAtZGmcQhn8ABP6YfY7+z+CAAAAAAAAAAQAAAAAAAAAAAAAAAAAA==

> <PUBCHEM_IUPAC_OPENEYE_NAME>
methyl 33-[(2R,3S,4S,5S,6R)-4-amino-3,5-dihydroxy-6-methyl-tetrahydropyran-2-yl]oxy-1,3,5,7,9,13,37-heptahydroxy-17-[4-hydroxy-1-methyl-6-[4-(methylamino)phenyl]-6-oxo-hexyl]-18-methyl-11,15-dioxo-16,39-dioxabicyclo[33.3.1]nonatriaconta-19,21,23,25,27,29,31-heptaene-36-carboxylate

> <PUBCHEM_IUPAC_CAS_NAME>
33-[[(2R,3S,4S,5S,6R)-4-amino-3,5-dihydroxy-6-methyl-2-oxanyl]oxy]-1,3,5,7,9,13,37-heptahydroxy-17-[5-hydroxy-7-[4-(methylamino)phenyl]-7-oxoheptan-2-yl]-18-methyl-11,15-dioxo-16,39-dioxabicyclo[33.3.1]nonatriaconta-19,21,23,25,27,29,31-heptaene-36-carboxylic acid methyl ester

> <PUBCHEM_IUPAC_NAME_MARKUP>
methyl 33-[(2<I>R</I>,3<I>S</I>,4<I>S</I>,5<I>S</I>,6<I>R</I>)-4-amino-3,5-dihydroxy-6-methyloxan-2-yl]oxy-1,3,5,7,9,13,37-heptahydroxy-17-[5-hydroxy-7-[4-(methylamino)phenyl]-7-oxoheptan-2-yl]-18-methyl-11,15-dioxo-16,39-dioxabicyclo[33.3.1]nonatriaconta-19,21,23,25,27,29,31-heptaene-36-carboxylate

> <PUBCHEM_IUPAC_NAME>
methyl 33-[(2R,3S,4S,5S,6R)-4-amino-3,5-dihydroxy-6-methyloxan-2-yl]oxy-1,3,5,7,9,13,37-heptahydroxy-17-[5-hydroxy-7-[4-(methylamino)phenyl]-7-oxoheptan-2-yl]-18-methyl-11,15-dioxo-16,39-dioxabicyclo[33.3.1]nonatriaconta-19,21,23,25,27,29,31-heptaene-36-carboxylate

> <PUBCHEM_IUPAC_SYSTEMATIC_NAME>
methyl 33-[(2R,3S,4S,5S,6R)-4-azanyl-6-methyl-3,5-bis(oxidanyl)oxan-2-yl]oxy-18-methyl-17-[7-[4-(methylamino)phenyl]-5-oxidanyl-7-oxidanylidene-heptan-2-yl]-1,3,5,7,9,13,37-heptakis(oxidanyl)-11,15-bis(oxidanylidene)-16,39-dioxabicyclo[33.3.1]nonatriaconta-19,21,23,25,27,29,31-heptaene-36-carboxylate

> <PUBCHEM_IUPAC_TRADITIONAL_NAME>
33-[(2R,3S,4S,5S,6R)-4-amino-3,5-dihydroxy-6-methyl-tetrahydropyran-2-yl]oxy-1,3,5,7,9,13,37-heptahydroxy-17-[4-hydroxy-6-keto-1-methyl-6-[4-(methylamino)phenyl]hexyl]-11,15-diketo-18-methyl-16,39-dioxabicyclo[33.3.1]nonatriaconta-19,21,23,25,27,29,31-heptaene-36-carboxylic acid methyl ester

> <PUBCHEM_IUPAC_INCHI>
InChI=1S/C60H88N2O19/c1-36-18-16-14-12-10-8-6-7-9-11-13-15-17-19-48(79-59-56(74)54(61)55(73)38(3)78-59)33-51-53(58(75)77-5)50(71)35-60(76,81-51)34-47(69)30-45(67)28-43(65)26-42(64)27-44(66)29-46(68)32-52(72)80-57(36)37(2)20-25-41(63)31-49(70)39-21-23-40(62-4)24-22-39/h6-19,21-24,36-38,41-43,45-48,50-51,53-57,59,62-65,67-69,71,73-74,76H,20,25-35,61H2,1-5H3/t36?,37?,38-,41?,42?,43?,45?,46?,47?,48?,50?,51?,53?,54+,55-,56+,57?,59+,60?/m1/s1

> <PUBCHEM_IUPAC_INCHIKEY>
GVEVTKSEPQUIJA-AKZXFYOWSA-N

> <PUBCHEM_XLOGP3_AA>
3.6

> <PUBCHEM_EXACT_MASS>
1140.598129

> <PUBCHEM_MOLECULAR_FORMULA>
C60H88N2O19

> <PUBCHEM_MOLECULAR_WEIGHT>
1141.3

> <PUBCHEM_OPENEYE_CAN_SMILES>
CC1C=CC=CC=CC=CC=CC=CC=CC(CC2C(C(CC(O2)(CC(CC(CC(CC(CC(=O)CC(CC(=O)OC1C(C)CCC(CC(=O)C3=CC=C(C=C3)NC)O)O)O)O)O)O)O)O)C(=O)OC)OC4C(C(C(C(O4)C)O)N)O

> <PUBCHEM_OPENEYE_ISO_SMILES>
C[C@@H]1[C@H]([C@@H]([C@@H]([C@@H](O1)OC2CC3C(C(CC(O3)(CC(CC(CC(CC(CC(=O)CC(CC(=O)OC(C(C=CC=CC=CC=CC=CC=CC=C2)C)C(C)CCC(CC(=O)C4=CC=C(C=C4)NC)O)O)O)O)O)O)O)O)C(=O)OC)O)N)O

> <PUBCHEM_CACTVS_TPSA>
355

> <PUBCHEM_MONOISOTOPIC_WEIGHT>
1140.598129

> <PUBCHEM_TOTAL_CHARGE>
0

> <PUBCHEM_HEAVY_ATOM_COUNT>
81

> <PUBCHEM_ATOM_DEF_STEREO_COUNT>
5

> <PUBCHEM_ATOM_UDEF_STEREO_COUNT>
14

> <PUBCHEM_BOND_DEF_STEREO_COUNT>
0

> <PUBCHEM_BOND_UDEF_STEREO_COUNT>
7

> <PUBCHEM_ISOTOPIC_ATOM_COUNT>
0

> <PUBCHEM_COMPONENT_COUNT>
1

> <PUBCHEM_CACTVS_TAUTO_COUNT>
-1

> <PUBCHEM_COORDINATE_TYPE>
1
5
255

> <PUBCHEM_BONDANNOTATIONS>
35  10  6
37  11  5
41  12  3
46  13  3
50  14  3
58  16  3
59  17  3
22  2  3
36  20  6
23  28  3
24  31  3
25  3  3
38  42  6
39  44  1
30  4  3
33  4  6
47  54  1
49  57  3
29  5  3
53  61  3
62  66  1
65  68  1
69  72  8
69  73  8
70  74  1
71  75  1
72  76  8
73  77  8
76  78  8
77  78  8
79  80  1
34  9  3

$$$$
