335377
  -OEChem-06022007153D

104108  0     0  0  0  0  0  0999 V2000
    0.0122   -1.9080   -2.9086 O   0  0  0  0  0  0  0  0  0  0  0  0
   -1.8768   -0.0133   -2.8905 O   0  0  0  0  0  0  0  0  0  0  0  0
    1.8733    0.0154   -2.8895 O   0  0  0  0  0  0  0  0  0  0  0  0
   -0.0155    1.9118   -2.9110 O   0  0  0  0  0  0  0  0  0  0  0  0
    0.0368   -5.0783    1.7523 C   0  0  0  0  0  0  0  0  0  0  0  0
   -5.1786   -0.0346    1.6782 C   0  0  0  0  0  0  0  0  0  0  0  0
    5.1744    0.0409    1.6799 C   0  0  0  0  0  0  0  0  0  0  0  0
   -0.0406    5.0797    1.7515 C   0  0  0  0  0  0  0  0  0  0  0  0
    0.0302   -4.2121    0.5379 C   0  0  0  0  0  0  0  0  0  0  0  0
   -4.2791   -0.0290    0.4883 C   0  0  0  0  0  0  0  0  0  0  0  0
    4.2756    0.0340    0.4894 C   0  0  0  0  0  0  0  0  0  0  0  0
   -0.0341    4.2144    0.5366 C   0  0  0  0  0  0  0  0  0  0  0  0
   -1.2000   -3.0010   -1.1657 C   0  0  0  0  0  0  0  0  0  0  0  0
   -3.0027   -1.2414   -1.1801 C   0  0  0  0  0  0  0  0  0  0  0  0
    3.0178   -1.1964   -1.1799 C   0  0  0  0  0  0  0  0  0  0  0  0
   -1.2447    2.9859   -1.1685 C   0  0  0  0  0  0  0  0  0  0  0  0
    1.2415   -2.9825   -1.1660 C   0  0  0  0  0  0  0  0  0  0  0  0
   -3.0209    1.1999   -1.1819 C   0  0  0  0  0  0  0  0  0  0  0  0
    2.9996    1.2449   -1.1804 C   0  0  0  0  0  0  0  0  0  0  0  0
    1.1965    3.0041   -1.1674 C   0  0  0  0  0  0  0  0  0  0  0  0
   -2.5095   -2.5442   -1.7598 C   0  0  0  0  0  0  0  0  0  0  0  0
    2.5438   -2.5060   -1.7604 C   0  0  0  0  0  0  0  0  0  0  0  0
   -2.5469    2.5092   -1.7631 C   0  0  0  0  0  0  0  0  0  0  0  0
    2.5063    2.5473   -1.7610 C   0  0  0  0  0  0  0  0  0  0  0  0
    1.2357   -3.7969   -0.0267 C   0  0  0  0  0  0  0  0  0  0  0  0
   -3.8661    1.1824   -0.0655 C   0  0  0  0  0  0  0  0  0  0  0  0
    3.8451    1.2393   -0.0639 C   0  0  0  0  0  0  0  0  0  0  0  0
    1.1778    3.8175   -0.0276 C   0  0  0  0  0  0  0  0  0  0  0  0
   -1.1816   -3.8152   -0.0265 C   0  0  0  0  0  0  0  0  0  0  0  0
   -3.8484   -1.2348   -0.0638 C   0  0  0  0  0  0  0  0  0  0  0  0
    3.8629   -1.1778   -0.0634 C   0  0  0  0  0  0  0  0  0  0  0  0
   -1.2393    3.7998   -0.0288 C   0  0  0  0  0  0  0  0  0  0  0  0
    0.0176   -2.5862   -1.7256 C   0  0  0  0  0  0  0  0  0  0  0  0
   -2.5911   -0.0180   -1.7294 C   0  0  0  0  0  0  0  0  0  0  0  0
    2.5880    0.0210   -1.7286 C   0  0  0  0  0  0  0  0  0  0  0  0
   -0.0208    2.5897   -1.7279 C   0  0  0  0  0  0  0  0  0  0  0  0
    0.7557   -4.3747    2.9448 C   0  0  0  0  0  0  0  0  0  0  0  0
    0.7789   -6.4240    1.4833 C   0  0  0  0  0  0  0  0  0  0  0  0
   -1.3736   -5.4823    2.2961 C   0  0  0  0  0  0  0  0  0  0  0  0
   -5.5976    1.3762    2.2097 C   0  0  0  0  0  0  0  0  0  0  0  0
   -6.5164   -0.7770    1.3724 C   0  0  0  0  0  0  0  0  0  0  0  0
   -4.5085   -0.7528    2.8902 C   0  0  0  0  0  0  0  0  0  0  0  0
    6.5239   -0.6796    1.3736 C   0  0  0  0  0  0  0  0  0  0  0  0
    4.5153   -0.6897    2.8906 C   0  0  0  0  0  0  0  0  0  0  0  0
    5.5704    1.4574    2.2138 C   0  0  0  0  0  0  0  0  0  0  0  0
    0.6800    6.4372    1.4830 C   0  0  0  0  0  0  0  0  0  0  0  0
    0.6902    4.3870    2.9434 C   0  0  0  0  0  0  0  0  0  0  0  0
   -1.4569    5.4608    2.2967 C   0  0  0  0  0  0  0  0  0  0  0  0
   -2.4842   -2.5436   -2.8553 H   0  0  0  0  0  0  0  0  0  0  0  0
   -3.2655   -3.3164   -1.5523 H   0  0  0  0  0  0  0  0  0  0  0  0
    3.3097   -3.2684   -1.5532 H   0  0  0  0  0  0  0  0  0  0  0  0
    2.5353   -2.4867   -2.8560 H   0  0  0  0  0  0  0  0  0  0  0  0
   -2.5370    2.4883   -2.8588 H   0  0  0  0  0  0  0  0  0  0  0  0
   -3.3131    3.2722   -1.5591 H   0  0  0  0  0  0  0  0  0  0  0  0
    3.2612    3.3206   -1.5540 H   0  0  0  0  0  0  0  0  0  0  0  0
    2.4811    2.5457   -2.8566 H   0  0  0  0  0  0  0  0  0  0  0  0
    2.1851   -4.0958    0.4105 H   0  0  0  0  0  0  0  0  0  0  0  0
   -4.1752    2.1392    0.3419 H   0  0  0  0  0  0  0  0  0  0  0  0
    4.1397    2.2005    0.3440 H   0  0  0  0  0  0  0  0  0  0  0  0
    2.1224    4.1305    0.4101 H   0  0  0  0  0  0  0  0  0  0  0  0
   -2.1382   -4.1132    0.3897 H   0  0  0  0  0  0  0  0  0  0  0  0
   -4.1593   -2.1837    0.3657 H   0  0  0  0  0  0  0  0  0  0  0  0
    4.1878   -2.1223    0.3656 H   0  0  0  0  0  0  0  0  0  0  0  0
   -2.2005    4.0833    0.3868 H   0  0  0  0  0  0  0  0  0  0  0  0
    0.7359   -4.9981    3.8463 H   0  0  0  0  0  0  0  0  0  0  0  0
    1.8072   -4.1624    2.7221 H   0  0  0  0  0  0  0  0  0  0  0  0
    0.2699   -3.4213    3.1839 H   0  0  0  0  0  0  0  0  0  0  0  0
    1.8312   -6.2666    1.2227 H   0  0  0  0  0  0  0  0  0  0  0  0
    0.3108   -6.9675    0.6542 H   0  0  0  0  0  0  0  0  0  0  0  0
    0.7587   -7.0738    2.3659 H   0  0  0  0  0  0  0  0  0  0  0  0
   -1.9591   -4.6028    2.5889 H   0  0  0  0  0  0  0  0  0  0  0  0
   -1.2861   -6.1180    3.1857 H   0  0  0  0  0  0  0  0  0  0  0  0
   -1.9439   -6.0507    1.5521 H   0  0  0  0  0  0  0  0  0  0  0  0
   -6.1450    1.9460    1.4497 H   0  0  0  0  0  0  0  0  0  0  0  0
   -4.7265    1.9617    2.5265 H   0  0  0  0  0  0  0  0  0  0  0  0
   -6.2579    1.2891    3.0812 H   0  0  0  0  0  0  0  0  0  0  0  0
   -7.0367   -0.3094    0.5282 H   0  0  0  0  0  0  0  0  0  0  0  0
   -7.1905   -0.7562    2.2366 H   0  0  0  0  0  0  0  0  0  0  0  0
   -6.3518   -1.8295    1.1170 H   0  0  0  0  0  0  0  0  0  0  0  0
   -3.5620   -0.2671    3.1554 H   0  0  0  0  0  0  0  0  0  0  0  0
   -4.2904   -1.8045    2.6742 H   0  0  0  0  0  0  0  0  0  0  0  0
   -5.1565   -0.7323    3.7741 H   0  0  0  0  0  0  0  0  0  0  0  0
    6.3762   -1.7341    1.1163 H   0  0  0  0  0  0  0  0  0  0  0  0
    7.1971   -0.6495    2.2383 H   0  0  0  0  0  0  0  0  0  0  0  0
    7.0373   -0.2022    0.5305 H   0  0  0  0  0  0  0  0  0  0  0  0
    3.5608   -0.2196    3.1558 H   0  0  0  0  0  0  0  0  0  0  0  0
    5.1624   -0.6599    3.7748 H   0  0  0  0  0  0  0  0  0  0  0  0
    4.3141   -1.7445    2.6731 H   0  0  0  0  0  0  0  0  0  0  0  0
    4.6898    2.0286    2.5304 H   0  0  0  0  0  0  0  0  0  0  0  0
    6.1094    2.0369    1.4552 H   0  0  0  0  0  0  0  0  0  0  0  0
    6.2311    1.3797    3.0859 H   0  0  0  0  0  0  0  0  0  0  0  0
    1.7345    6.2966    1.2215 H   0  0  0  0  0  0  0  0  0  0  0  0
    0.2027    6.9739    0.6546 H   0  0  0  0  0  0  0  0  0  0  0  0
    0.6501    7.0860    2.3661 H   0  0  0  0  0  0  0  0  0  0  0  0
    1.7450    4.1921    2.7202 H   0  0  0  0  0  0  0  0  0  0  0  0
    0.6606    5.0093    3.8453 H   0  0  0  0  0  0  0  0  0  0  0  0
    0.2202    3.4255    3.1820 H   0  0  0  0  0  0  0  0  0  0  0  0
   -2.0282    4.5718    2.5886 H   0  0  0  0  0  0  0  0  0  0  0  0
   -2.0364    6.0211    1.5536 H   0  0  0  0  0  0  0  0  0  0  0  0
   -1.3789    6.0968    3.1869 H   0  0  0  0  0  0  0  0  0  0  0  0
    0.8924   -1.6067   -3.1684 H   0  0  0  0  0  0  0  0  0  0  0  0
   -1.6160   -0.8993   -3.1729 H   0  0  0  0  0  0  0  0  0  0  0  0
    1.6125    0.9012   -3.1726 H   0  0  0  0  0  0  0  0  0  0  0  0
   -0.8949    1.6066   -3.1686 H   0  0  0  0  0  0  0  0  0  0  0  0
  1 33  1  0  0  0  0
  1101  1  0  0  0  0
  2 34  1  0  0  0  0
  2102  1  0  0  0  0
  3 35  1  0  0  0  0
  3103  1  0  0  0  0
  4 36  1  0  0  0  0
  4104  1  0  0  0  0
  5  9  1  0  0  0  0
  5 37  1  0  0  0  0
  5 38  1  0  0  0  0
  5 39  1  0  0  0  0
  6 10  1  0  0  0  0
  6 40  1  0  0  0  0
  6 41  1  0  0  0  0
  6 42  1  0  0  0  0
  7 11  1  0  0  0  0
  7 43  1  0  0  0  0
  7 44  1  0  0  0  0
  7 45  1  0  0  0  0
  8 12  1  0  0  0  0
  8 46  1  0  0  0  0
  8 47  1  0  0  0  0
  8 48  1  0  0  0  0
  9 25  2  0  0  0  0
  9 29  1  0  0  0  0
 10 26  2  0  0  0  0
 10 30  1  0  0  0  0
 11 27  2  0  0  0  0
 11 31  1  0  0  0  0
 12 28  2  0  0  0  0
 12 32  1  0  0  0  0
 13 21  1  0  0  0  0
 13 29  2  0  0  0  0
 13 33  1  0  0  0  0
 14 21  1  0  0  0  0
 14 30  2  0  0  0  0
 14 34  1  0  0  0  0
 15 22  1  0  0  0  0
 15 31  2  0  0  0  0
 15 35  1  0  0  0  0
 16 23  1  0  0  0  0
 16 32  2  0  0  0  0
 16 36  1  0  0  0  0
 17 22  1  0  0  0  0
 17 25  1  0  0  0  0
 17 33  2  0  0  0  0
 18 23  1  0  0  0  0
 18 26  1  0  0  0  0
 18 34  2  0  0  0  0
 19 24  1  0  0  0  0
 19 27  1  0  0  0  0
 19 35  2  0  0  0  0
 20 24  1  0  0  0  0
 20 28  1  0  0  0  0
 20 36  2  0  0  0  0
 21 49  1  0  0  0  0
 21 50  1  0  0  0  0
 22 51  1  0  0  0  0
 22 52  1  0  0  0  0
 23 53  1  0  0  0  0
 23 54  1  0  0  0  0
 24 55  1  0  0  0  0
 24 56  1  0  0  0  0
 25 57  1  0  0  0  0
 26 58  1  0  0  0  0
 27 59  1  0  0  0  0
 28 60  1  0  0  0  0
 29 61  1  0  0  0  0
 30 62  1  0  0  0  0
 31 63  1  0  0  0  0
 32 64  1  0  0  0  0
 37 65  1  0  0  0  0
 37 66  1  0  0  0  0
 37 67  1  0  0  0  0
 38 68  1  0  0  0  0
 38 69  1  0  0  0  0
 38 70  1  0  0  0  0
 39 71  1  0  0  0  0
 39 72  1  0  0  0  0
 39 73  1  0  0  0  0
 40 74  1  0  0  0  0
 40 75  1  0  0  0  0
 40 76  1  0  0  0  0
 41 77  1  0  0  0  0
 41 78  1  0  0  0  0
 41 79  1  0  0  0  0
 42 80  1  0  0  0  0
 42 81  1  0  0  0  0
 42 82  1  0  0  0  0
 43 83  1  0  0  0  0
 43 84  1  0  0  0  0
 43 85  1  0  0  0  0
 44 86  1  0  0  0  0
 44 87  1  0  0  0  0
 44 88  1  0  0  0  0
 45 89  1  0  0  0  0
 45 90  1  0  0  0  0
 45 91  1  0  0  0  0
 46 92  1  0  0  0  0
 46 93  1  0  0  0  0
 46 94  1  0  0  0  0
 47 95  1  0  0  0  0
 47 96  1  0  0  0  0
 47 97  1  0  0  0  0
 48 98  1  0  0  0  0
 48 99  1  0  0  0  0
 48100  1  0  0  0  0
M  END
> <PUBCHEM_COMPOUND_CID>
335377

> <PUBCHEM_CONFORMER_RMSD>
1

> <PUBCHEM_CONFORMER_DIVERSEORDER>
2
3
4
1

> <PUBCHEM_MMFF94_PARTIAL_CHARGES>
48
1 -0.53
10 -0.14
101 0.45
102 0.45
103 0.45
104 0.45
11 -0.14
12 -0.14
13 -0.14
14 -0.14
15 -0.14
16 -0.14
17 -0.14
18 -0.14
19 -0.14
2 -0.53
20 -0.14
21 0.29
22 0.29
23 0.29
24 0.29
25 -0.15
26 -0.15
27 -0.15
28 -0.15
29 -0.15
3 -0.53
30 -0.15
31 -0.15
32 -0.15
33 0.08
34 0.08
35 0.08
36 0.08
4 -0.53
5 0.14
57 0.15
58 0.15
59 0.15
6 0.14
60 0.15
61 0.15
62 0.15
63 0.15
64 0.15
7 0.14
8 0.14
9 -0.14

> <PUBCHEM_EFFECTIVE_ROTOR_COUNT>
4.8

> <PUBCHEM_PHARMACOPHORE_FEATURES>
12
1 1 donor
1 2 donor
1 3 donor
1 4 donor
4 5 37 38 39 hydrophobe
4 6 40 41 42 hydrophobe
4 7 43 44 45 hydrophobe
4 8 46 47 48 hydrophobe
6 10 14 18 26 30 34 rings
6 11 15 19 27 31 35 rings
6 12 16 20 28 32 36 rings
6 9 13 17 25 29 33 rings

> <PUBCHEM_HEAVY_ATOM_COUNT>
48

> <PUBCHEM_ATOM_DEF_STEREO_COUNT>
0

> <PUBCHEM_ATOM_UDEF_STEREO_COUNT>
0

> <PUBCHEM_BOND_DEF_STEREO_COUNT>
0

> <PUBCHEM_BOND_UDEF_STEREO_COUNT>
0

> <PUBCHEM_ISOTOPIC_ATOM_COUNT>
0

> <PUBCHEM_COMPONENT_COUNT>
1

> <PUBCHEM_CACTVS_TAUTO_COUNT>
8

> <PUBCHEM_CONFORMER_ID>
00051E1100000002

> <PUBCHEM_MMFF94_ENERGY>
189.5694

> <PUBCHEM_FEATURE_SELFOVERLAP>
60.929

> <PUBCHEM_SHAPE_FINGERPRINT>
10439779 11 18055352697982027726
12422481 6 18410856516705973525
12608794 3 18263353853548199691
13165054 411 17695599894072299690
13947930 73 17749680687132647914
14705955 166 18271509915888685530
14725015 67 18120066593897452615
15815584 197 18263645074217617183
16067690 210 15913059664104229025
16112460 7 18198904901481395424
17974551 9 17979917433998179590
20764821 26 18410289254668762476
21796203 349 18265914595098273632
24180151 46 18338235955518911865
392239 28 18058991944421968036
4616759 239 16670201843403822530
563151 40 17474710194227274230
9961470 85 17469870096079939601

> <PUBCHEM_SHAPE_MULTIPOLES>
964.34
9.91
9.66
3.48
0.14
0.12
-0.58
-0.05
-7
-0.06
-7.11
-0.02
-0.02
0

> <PUBCHEM_SHAPE_SELFOVERLAP>
2089.324

> <PUBCHEM_SHAPE_VOLUME>
533.5

> <PUBCHEM_COORDINATE_TYPE>
2
5
10

$$$$
